# generated using pymatgen
data_AlH3
_symmetry_space_group_name_H-M   'P 1'
_cell_length_a   8.97870110
_cell_length_b   8.97870110
_cell_length_c   8.97870110
_cell_angle_alpha   90.00000000
_cell_angle_beta   90.00000000
_cell_angle_gamma   90.00000000
_symmetry_Int_Tables_number   1
_chemical_formula_structural   AlH3
_chemical_formula_sum   'Al16 H48'
_cell_volume   723.83660600
_cell_formula_units_Z   16
loop_
 _symmetry_equiv_pos_site_id
 _symmetry_equiv_pos_as_xyz
  1  'x, y, z'
loop_
 _atom_type_symbol
 _atom_type_oxidation_number
  Al3+  3.0
  H-  -1.0
loop_
 _atom_site_type_symbol
 _atom_site_label
 _atom_site_symmetry_multiplicity
 _atom_site_fract_x
 _atom_site_fract_y
 _atom_site_fract_z
 _atom_site_occupancy
  Al3+  Al0  1  0.12500000  0.37500000  0.37500000  1
  Al3+  Al1  1  0.37500000  0.12500000  0.37500000  1
  Al3+  Al2  1  0.37500000  0.87500000  0.62500000  1
  Al3+  Al3  1  0.12500000  0.12500000  0.12500000  1
  Al3+  Al4  1  0.12500000  0.87500000  0.87500000  1
  Al3+  Al5  1  0.37500000  0.62500000  0.87500000  1
  Al3+  Al6  1  0.37500000  0.37500000  0.12500000  1
  Al3+  Al7  1  0.12500000  0.62500000  0.62500000  1
  Al3+  Al8  1  0.62500000  0.37500000  0.87500000  1
  Al3+  Al9  1  0.87500000  0.12500000  0.87500000  1
  Al3+  Al10  1  0.87500000  0.87500000  0.12500000  1
  Al3+  Al11  1  0.62500000  0.12500000  0.62500000  1
  Al3+  Al12  1  0.62500000  0.87500000  0.37500000  1
  Al3+  Al13  1  0.87500000  0.62500000  0.37500000  1
  Al3+  Al14  1  0.87500000  0.37500000  0.62500000  1
  Al3+  Al15  1  0.62500000  0.62500000  0.12500000  1
  H-  H16  1  0.50000000  0.00000000  0.30509041  1
  H-  H17  1  0.50000000  0.00000000  0.69490959  1
  H-  H18  1  0.50000000  0.80509041  0.50000000  1
  H-  H19  1  0.50000000  0.19490959  0.50000000  1
  H-  H20  1  0.30509041  0.00000000  0.50000000  1
  H-  H21  1  0.19490959  0.00000000  0.00000000  1
  H-  H22  1  0.25000000  0.25000000  0.44490959  1
  H-  H23  1  0.25000000  0.25000000  0.05509041  1
  H-  H24  1  0.25000000  0.44490959  0.25000000  1
  H-  H25  1  0.25000000  0.05509041  0.25000000  1
  H-  H26  1  0.44490959  0.25000000  0.25000000  1
  H-  H27  1  0.55509041  0.25000000  0.75000000  1
  H-  H28  1  0.50000000  0.50000000  0.80509041  1
  H-  H29  1  0.50000000  0.50000000  0.19490959  1
  H-  H30  1  0.50000000  0.30509041  0.00000000  1
  H-  H31  1  0.50000000  0.69490959  0.00000000  1
  H-  H32  1  0.30509041  0.50000000  0.00000000  1
  H-  H33  1  0.19490959  0.50000000  0.50000000  1
  H-  H34  1  0.25000000  0.75000000  0.94490959  1
  H-  H35  1  0.25000000  0.75000000  0.55509041  1
  H-  H36  1  0.25000000  0.94490959  0.75000000  1
  H-  H37  1  0.25000000  0.55509041  0.75000000  1
  H-  H38  1  0.44490959  0.75000000  0.75000000  1
  H-  H39  1  0.55509041  0.75000000  0.25000000  1
  H-  H40  1  0.00000000  0.00000000  0.80509041  1
  H-  H41  1  0.00000000  0.00000000  0.19490959  1
  H-  H42  1  0.00000000  0.80509041  0.00000000  1
  H-  H43  1  0.00000000  0.19490959  0.00000000  1
  H-  H44  1  0.80509041  0.00000000  0.00000000  1
  H-  H45  1  0.69490959  0.00000000  0.50000000  1
  H-  H46  1  0.75000000  0.25000000  0.94490959  1
  H-  H47  1  0.75000000  0.25000000  0.55509041  1
  H-  H48  1  0.75000000  0.44490959  0.75000000  1
  H-  H49  1  0.75000000  0.05509041  0.75000000  1
  H-  H50  1  0.94490959  0.25000000  0.75000000  1
  H-  H51  1  0.05509041  0.25000000  0.25000000  1
  H-  H52  1  0.00000000  0.50000000  0.30509041  1
  H-  H53  1  0.00000000  0.50000000  0.69490959  1
  H-  H54  1  0.00000000  0.30509041  0.50000000  1
  H-  H55  1  0.00000000  0.69490959  0.50000000  1
  H-  H56  1  0.80509041  0.50000000  0.50000000  1
  H-  H57  1  0.69490959  0.50000000  0.00000000  1
  H-  H58  1  0.75000000  0.75000000  0.44490959  1
  H-  H59  1  0.75000000  0.75000000  0.05509041  1
  H-  H60  1  0.75000000  0.94490959  0.25000000  1
  H-  H61  1  0.75000000  0.55509041  0.25000000  1
  H-  H62  1  0.94490959  0.75000000  0.25000000  1
  H-  H63  1  0.05509041  0.75000000  0.75000000  1
