# generated using pymatgen
data_Na3AlH6
_symmetry_space_group_name_H-M   'P 1'
_cell_length_a   5.29339841
_cell_length_b   5.49020829
_cell_length_c   9.27667346
_cell_angle_alpha   90.00000000
_cell_angle_beta   124.77562218
_cell_angle_gamma   90.00000000
_symmetry_Int_Tables_number   1
_chemical_formula_structural   Na3AlH6
_chemical_formula_sum   'Na6 Al2 H12'
_cell_volume   221.44512303
_cell_formula_units_Z   2
loop_
 _symmetry_equiv_pos_site_id
 _symmetry_equiv_pos_as_xyz
  1  'x, y, z'
loop_
 _atom_type_symbol
 _atom_type_oxidation_number
  Na+  1.0
  Al3+  3.0
  H-  -1.0
loop_
 _atom_site_type_symbol
 _atom_site_label
 _atom_site_symmetry_multiplicity
 _atom_site_fract_x
 _atom_site_fract_y
 _atom_site_fract_z
 _atom_site_occupancy
  Na+  Na0  1  0.50000000  0.50000000  0.00000000  1
  Na+  Na1  1  0.50000000  0.00000000  0.50000000  1
  Na+  Na2  1  0.75764130  0.45272298  0.74647399  1
  Na+  Na3  1  0.24235870  0.95272298  0.75352601  1
  Na+  Na4  1  0.24235870  0.54727702  0.25352601  1
  Na+  Na5  1  0.75764130  0.04727702  0.24647399  1
  Al3+  Al6  1  0.00000000  0.50000000  0.50000000  1
  Al3+  Al7  1  0.00000000  0.00000000  0.00000000  1
  H-  H8  1  0.90168716  0.26723739  0.06298429  1
  H-  H9  1  0.09831284  0.76723739  0.43701571  1
  H-  H10  1  0.09831284  0.73276261  0.93701571  1
  H-  H11  1  0.90168716  0.23276261  0.56298429  1
  H-  H12  1  0.22851474  0.33028034  0.45655455  1
  H-  H13  1  0.77148526  0.83028034  0.04344545  1
  H-  H14  1  0.77148526  0.66971966  0.54344545  1
  H-  H15  1  0.22851474  0.16971966  0.95655455  1
  H-  H16  1  0.68374894  0.45229531  0.28325803  1
  H-  H17  1  0.31625106  0.95229531  0.21674197  1
  H-  H18  1  0.31625106  0.54770469  0.71674197  1
  H-  H19  1  0.68374894  0.04770469  0.78325803  1
