# generated using pymatgen
data_NaAlH4
_symmetry_space_group_name_H-M   'P 1'
_cell_length_a   4.94110111
_cell_length_b   4.94110111
_cell_length_c   10.98956586
_cell_angle_alpha   90.00000000
_cell_angle_beta   90.00000000
_cell_angle_gamma   90.00000000
_symmetry_Int_Tables_number   1
_chemical_formula_structural   NaAlH4
_chemical_formula_sum   'Na4 Al4 H16'
_cell_volume   268.30453805
_cell_formula_units_Z   4
loop_
 _symmetry_equiv_pos_site_id
 _symmetry_equiv_pos_as_xyz
  1  'x, y, z'
loop_
 _atom_type_symbol
 _atom_type_oxidation_number
  Na+  1.0
  Al3+  3.0
  H-  -1.0
loop_
 _atom_site_type_symbol
 _atom_site_label
 _atom_site_symmetry_multiplicity
 _atom_site_fract_x
 _atom_site_fract_y
 _atom_site_fract_z
 _atom_site_occupancy
  Na+  Na0  1  0.50000000  0.00000000  0.75000000  1
  Na+  Na1  1  0.50000000  0.50000000  0.50000000  1
  Na+  Na2  1  0.00000000  0.50000000  0.25000000  1
  Na+  Na3  1  0.00000000  0.00000000  0.00000000  1
  Al3+  Al4  1  0.00000000  0.50000000  0.75000000  1
  Al3+  Al5  1  0.00000000  0.00000000  0.50000000  1
  Al3+  Al6  1  0.50000000  0.00000000  0.25000000  1
  Al3+  Al7  1  0.50000000  0.50000000  0.00000000  1
  H-  H8  1  0.85781395  0.76351317  0.41897771  1
  H-  H9  1  0.76351317  0.64218605  0.66897771  1
  H-  H10  1  0.23648683  0.35781395  0.66897771  1
  H-  H11  1  0.14218605  0.23648683  0.41897771  1
  H-  H12  1  0.85781395  0.26351317  0.83102229  1
  H-  H13  1  0.76351317  0.14218605  0.58102229  1
  H-  H14  1  0.23648683  0.85781395  0.58102229  1
  H-  H15  1  0.14218605  0.73648683  0.83102229  1
  H-  H16  1  0.35781395  0.26351317  0.91897771  1
  H-  H17  1  0.26351317  0.14218605  0.16897771  1
  H-  H18  1  0.73648683  0.85781395  0.16897771  1
  H-  H19  1  0.64218605  0.73648683  0.91897771  1
  H-  H20  1  0.35781395  0.76351317  0.33102229  1
  H-  H21  1  0.26351317  0.64218605  0.08102229  1
  H-  H22  1  0.73648683  0.35781395  0.08102229  1
  H-  H23  1  0.64218605  0.23648683  0.33102229  1
