# generated using pymatgen
data_BH3
_symmetry_space_group_name_Hall   '-P 2ybc'
_cell_length_a   4.29059618
_cell_length_b   6.18906359
_cell_length_c   6.19326255
_cell_angle_alpha   90.00000000
_cell_angle_beta   116.53679438
_cell_angle_gamma   90.00000000
_symmetry_Int_Tables_number   14
_chemical_formula_structural   BH3
_chemical_formula_sum   'B4 H12'
_cell_volume   147.13435751
_cell_formula_units_Z   4
loop_
 _symmetry_equiv_pos_site_id
 _symmetry_equiv_pos_as_xyz
  1  'x, y, z'
  2  '-x, -y, -z'
  3  '-x, y+1/2, -z+1/2'
  4  'x, -y+1/2, z+1/2'
loop_
 _atom_type_symbol
 _atom_type_oxidation_number
  B3+  3.0
  H-  -1.0
loop_
 _atom_site_type_symbol
 _atom_site_label
 _atom_site_symmetry_multiplicity
 _atom_site_fract_x
 _atom_site_fract_y
 _atom_site_fract_z
 _atom_site_occupancy
  B3+  B0  4  0.14248581  0.54380977  0.64462371  1
  H-  H1  4  0.08781121  0.00475569  0.31036971  1
  H-  H2  4  0.14111878  0.13138651  0.02405033  1
  H-  H3  4  0.38677590  0.65117805  0.67132463  1
