# generated using pymatgen
data_NaBH4
_symmetry_space_group_name_Hall   'P -4 2n'
_cell_length_a   4.31911791
_cell_length_b   4.31911791
_cell_length_c   5.75694293
_cell_angle_alpha   90.00000000
_cell_angle_beta   90.00000000
_cell_angle_gamma   90.00000000
_symmetry_Int_Tables_number   114
_chemical_formula_structural   NaBH4
_chemical_formula_sum   'Na2 B2 H8'
_cell_volume   107.39450107
_cell_formula_units_Z   2
loop_
 _symmetry_equiv_pos_site_id
 _symmetry_equiv_pos_as_xyz
  1  'x, y, z'
  2  'y, -x, -z'
  3  '-x, -y, z'
  4  '-y, x, -z'
  5  'x+1/2, -y+1/2, -z+1/2'
  6  'y+1/2, x+1/2, z+1/2'
  7  '-x+1/2, y+1/2, -z+1/2'
  8  '-y+1/2, -x+1/2, z+1/2'
loop_
 _atom_type_symbol
 _atom_type_oxidation_number
  Na+  1.0
  B3+  3.0
  H-  -1.0
loop_
 _atom_site_type_symbol
 _atom_site_label
 _atom_site_symmetry_multiplicity
 _atom_site_fract_x
 _atom_site_fract_y
 _atom_site_fract_z
 _atom_site_occupancy
  Na+  Na0  2  0.00000000  0.00000000  0.00000000  1
  B3+  B1  2  0.00000000  0.00000000  0.50000000  1
  H-  H2  8  0.01899808  0.76951004  0.37840287  1
