# generated using pymatgen
data_K3AlH6
_symmetry_space_group_name_H-M   P2_1/c
_cell_length_a   5.97514397
_cell_length_b   6.01243194
_cell_length_c   10.32658354
_cell_angle_alpha   90.00000000
_cell_angle_beta   124.78756603
_cell_angle_gamma   90.00000000
_symmetry_Int_Tables_number   14
_chemical_formula_structural   K3AlH6
_chemical_formula_sum   'K6 Al2 H12'
_cell_volume   304.67917960
_cell_formula_units_Z   2
loop_
 _symmetry_equiv_pos_site_id
 _symmetry_equiv_pos_as_xyz
  1  'x, y, z'
  2  '-x, -y, -z'
  3  '-x, y+1/2, -z+1/2'
  4  'x, -y+1/2, z+1/2'
loop_
 _atom_type_symbol
 _atom_type_oxidation_number
  K+  1.0
  Al3+  3.0
  H-  -1.0
loop_
 _atom_site_type_symbol
 _atom_site_label
 _atom_site_symmetry_multiplicity
 _atom_site_fract_x
 _atom_site_fract_y
 _atom_site_fract_z
 _atom_site_occupancy
  K+  K0  4  0.24292875  0.02830717  0.74905621  1
  K+  K1  2  0.50000000  0.00000000  0.50000000  1
  Al3+  Al2  2  0.00000000  0.00000000  0.00000000  1
  H-  H3  4  0.13117510  0.23823232  0.96423214  1
  H-  H4  4  0.20738546  0.67113132  0.47091877  1
  H-  H5  4  0.26197625  0.01946060  0.20297774  1
