# generated using pymatgen
data_KAlH4
_symmetry_space_group_name_H-M   Pnma
_cell_length_a   8.76807293
_cell_length_b   5.72012801
_cell_length_c   7.27132597
_cell_angle_alpha   90.00000000
_cell_angle_beta   90.00000000
_cell_angle_gamma   90.00000000
_symmetry_Int_Tables_number   62
_chemical_formula_structural   KAlH4
_chemical_formula_sum   'K4 Al4 H16'
_cell_volume   364.68971517
_cell_formula_units_Z   4
loop_
 _symmetry_equiv_pos_site_id
 _symmetry_equiv_pos_as_xyz
  1  'x, y, z'
  2  '-x, -y, -z'
  3  '-x+1/2, -y, z+1/2'
  4  'x+1/2, y, -z+1/2'
  5  'x+1/2, -y+1/2, -z+1/2'
  6  '-x+1/2, y+1/2, z+1/2'
  7  '-x, y+1/2, -z'
  8  'x, -y+1/2, z'
loop_
 _atom_type_symbol
 _atom_type_oxidation_number
  K+  1.0
  Al3+  3.0
  H-  -1.0
loop_
 _atom_site_type_symbol
 _atom_site_label
 _atom_site_symmetry_multiplicity
 _atom_site_fract_x
 _atom_site_fract_y
 _atom_site_fract_z
 _atom_site_occupancy
  K+  K0  4  0.17645692  0.25000000  0.16537188  1
  Al3+  Al1  4  0.06879377  0.25000000  0.67944804  1
  H-  H2  8  0.07785350  0.02063766  0.81079906  1
  H-  H3  4  0.09001776  0.75000000  0.43397722  1
  H-  H4  4  0.21594129  0.25000000  0.54433038  1
