# generated using pymatgen
data_LiAlH4
_symmetry_space_group_name_H-M   P2_1/c
_cell_length_a   4.86190900
_cell_length_b   7.82470000
_cell_length_c   7.87004681
_cell_angle_alpha   90.00000000
_cell_angle_beta   111.80505558
_cell_angle_gamma   90.00000000
_symmetry_Int_Tables_number   14
_chemical_formula_structural   LiAlH4
_chemical_formula_sum   'Li4 Al4 H16'
_cell_volume   277.97887079
_cell_formula_units_Z   4
loop_
 _symmetry_equiv_pos_site_id
 _symmetry_equiv_pos_as_xyz
  1  'x, y, z'
  2  '-x, -y, -z'
  3  '-x, y+1/2, -z+1/2'
  4  'x, -y+1/2, z+1/2'
loop_
 _atom_type_symbol
 _atom_type_oxidation_number
  Li+  1.0
  Al3+  3.0
  H-  -1.0
loop_
 _atom_site_type_symbol
 _atom_site_label
 _atom_site_symmetry_multiplicity
 _atom_site_fract_x
 _atom_site_fract_y
 _atom_site_fract_z
 _atom_site_occupancy
  Li+  Li0  4  0.42931100  0.03523100  0.67565600  1
  Al3+  Al1  4  0.13974900  0.70216300  0.43230600  1
  H-  H2  4  0.18242700  0.59904000  0.26431400  1
  H-  H3  4  0.20188300  0.23598000  0.62761800  1
  H-  H4  4  0.23819700  0.58259200  0.61422100  1
  H-  H5  4  0.35380200  0.62799000  0.97777400  1
